[root]
type=Root
children=system
eventq_index=0
full_system=true
sim_quantum=0
time_sync_enable=false
time_sync_period=100000000000
time_sync_spin_threshold=100000000

[system]
type=LinuxAlphaSystem
children=clk_domain cpu cpu_clk_domain cpu_voltage_domain disk0 disk2 dvfs_handler intrctrl iobus mem_ctrls ruby simple_disk sys_port_proxy terminal tsunami voltage_domain
boot_cpu_frequency=500
boot_osflags=root=/dev/hda1 console=ttyS0
cache_line_size=64
clk_domain=system.clk_domain
console=/dist/m5/system/binaries/console
default_p_state=UNDEFINED
eventq_index=0
exit_on_work_items=false
init_param=0
kernel=/dist/m5/system/binaries/vmlinux
kernel_addr_check=true
kernel_extras=
load_addr_mask=1099511627775
load_offset=0
mem_mode=timing
mem_ranges=0:536870911:0:0:0:0
memories=system.mem_ctrls
mmap_using_noreserve=false
multi_thread=false
num_work_ids=16
p_state_clk_gate_bins=20
p_state_clk_gate_max=1000000000000
p_state_clk_gate_min=1000
pal=/dist/m5/system/binaries/ts_osfpal
power_model=
readfile=
symbolfile=
system_rev=1024
system_type=34
thermal_components=
thermal_model=Null
work_begin_ckpt_count=0
work_begin_cpu_id_exit=-1
work_begin_exit_count=0
work_cpus_ckpt_count=0
work_end_ckpt_count=0
work_end_exit_count=0
work_item_id=-1
system_port=system.sys_port_proxy.slave[0]

[system.clk_domain]
type=SrcClockDomain
clock=1000
domain_id=-1
eventq_index=0
init_perf_level=0
voltage_domain=system.voltage_domain

[system.cpu]
type=TimingSimpleCPU
children=dtb interrupts isa itb tracer
branchPred=Null
checker=Null
clk_domain=system.cpu_clk_domain
cpu_id=0
default_p_state=UNDEFINED
do_checkpoint_insts=true
do_quiesce=true
do_statistics_insts=true
dtb=system.cpu.dtb
eventq_index=0
function_trace=false
function_trace_start=0
interrupts=system.cpu.interrupts
isa=system.cpu.isa
itb=system.cpu.itb
max_insts_all_threads=0
max_insts_any_thread=100000
max_loads_all_threads=0
max_loads_any_thread=0
numThreads=1
p_state_clk_gate_bins=20
p_state_clk_gate_max=1000000000000
p_state_clk_gate_min=1000
power_gating_on_idle=false
power_model=
profile=0
progress_interval=0
pwr_gating_latency=300
simpoint_start_insts=
socket_id=0
switched_out=false
syscallRetryLatency=10000
system=system
tracer=system.cpu.tracer
wait_for_remote_gdb=false
workload=
dcache_port=system.ruby.l1_cntrl0.sequencer.slave[1]
icache_port=system.ruby.l1_cntrl0.sequencer.slave[0]

[system.cpu.dtb]
type=AlphaTLB
clk_domain=system.cpu_clk_domain
default_p_state=UNDEFINED
eventq_index=0
p_state_clk_gate_bins=20
p_state_clk_gate_max=1000000000000
p_state_clk_gate_min=1000
power_model=
size=64

[system.cpu.interrupts]
type=AlphaInterrupts
eventq_index=0

[system.cpu.isa]
type=AlphaISA
eventq_index=0
system=system

[system.cpu.itb]
type=AlphaTLB
clk_domain=system.cpu_clk_domain
default_p_state=UNDEFINED
eventq_index=0
p_state_clk_gate_bins=20
p_state_clk_gate_max=1000000000000
p_state_clk_gate_min=1000
power_model=
size=48

[system.cpu.tracer]
type=ExeTracer
eventq_index=0

[system.cpu_clk_domain]
type=SrcClockDomain
clock=500
domain_id=-1
eventq_index=0
init_perf_level=0
voltage_domain=system.cpu_voltage_domain

[system.cpu_voltage_domain]
type=VoltageDomain
eventq_index=0
voltage=1.0

[system.disk0]
type=IdeDisk
children=image
delay=1000000
driveID=master
eventq_index=0
image=system.disk0.image

[system.disk0.image]
type=CowDiskImage
children=child
child=system.disk0.image.child
eventq_index=0
image_file=
read_only=false
table_size=65536

[system.disk0.image.child]
type=RawDiskImage
eventq_index=0
image_file=/dist/m5/system/disks/linux-latest.img
read_only=true

[system.disk2]
type=IdeDisk
children=image
delay=1000000
driveID=master
eventq_index=0
image=system.disk2.image

[system.disk2.image]
type=CowDiskImage
children=child
child=system.disk2.image.child
eventq_index=0
image_file=
read_only=false
table_size=65536

[system.disk2.image.child]
type=RawDiskImage
eventq_index=0
image_file=/dist/m5/system/disks/linux-bigswap2.img
read_only=true

[system.dvfs_handler]
type=DVFSHandler
domains=
enable=false
eventq_index=0
sys_clk_domain=system.clk_domain
transition_latency=100000000

[system.intrctrl]
type=IntrControl
eventq_index=0
sys=system

[system.iobus]
type=NoncoherentXBar
clk_domain=system.clk_domain
default_p_state=UNDEFINED
eventq_index=0
forward_latency=1
frontend_latency=2
p_state_clk_gate_bins=20
p_state_clk_gate_max=1000000000000
p_state_clk_gate_min=1000
power_model=
response_latency=2
use_default_range=false
width=16
master=system.tsunami.cchip.pio system.tsunami.pchip.pio system.tsunami.fake_sm_chip.pio system.tsunami.fake_uart1.pio system.tsunami.fake_uart2.pio system.tsunami.fake_uart3.pio system.tsunami.fake_uart4.pio system.tsunami.fake_ppc.pio system.tsunami.fake_OROM.pio system.tsunami.fake_pnp_addr.pio system.tsunami.fake_pnp_write.pio system.tsunami.fake_pnp_read0.pio system.tsunami.fake_pnp_read1.pio system.tsunami.fake_pnp_read2.pio system.tsunami.fake_pnp_read3.pio system.tsunami.fake_pnp_read4.pio system.tsunami.fake_pnp_read5.pio system.tsunami.fake_pnp_read6.pio system.tsunami.fake_pnp_read7.pio system.tsunami.fake_ata0.pio system.tsunami.fake_ata1.pio system.tsunami.fb.pio system.tsunami.io.pio system.tsunami.uart.pio system.tsunami.backdoor.pio system.tsunami.ide.pio system.tsunami.ethernet.pio system.ruby.io_controller.dma_sequencer.slave[0]
slave=system.sys_port_proxy.pio_master_port system.ruby.l1_cntrl0.sequencer.pio_master_port system.ruby.l1_cntrl0.sequencer.mem_master_port

[system.mem_ctrls]
type=DRAMCtrl
IDD0=0.055
IDD02=0.0
IDD2N=0.032
IDD2N2=0.0
IDD2P0=0.0
IDD2P02=0.0
IDD2P1=0.032
IDD2P12=0.0
IDD3N=0.038
IDD3N2=0.0
IDD3P0=0.0
IDD3P02=0.0
IDD3P1=0.038
IDD3P12=0.0
IDD4R=0.157
IDD4R2=0.0
IDD4W=0.125
IDD4W2=0.0
IDD5=0.235
IDD52=0.0
IDD6=0.02
IDD62=0.0
VDD=1.5
VDD2=0.0
activation_limit=4
addr_mapping=RoRaBaCoCh
bank_groups_per_rank=0
banks_per_rank=8
burst_length=8
channels=1
clk_domain=system.clk_domain
conf_table_reported=true
default_p_state=UNDEFINED
device_bus_width=8
device_rowbuffer_size=1024
device_size=536870912
devices_per_rank=8
dll=true
eventq_index=0
in_addr_map=true
kvm_map=true
max_accesses_per_row=16
mem_sched_policy=frfcfs
min_writes_per_switch=16
null=false
p_state_clk_gate_bins=20
p_state_clk_gate_max=1000000000000
p_state_clk_gate_min=1000
page_policy=open_adaptive
power_model=
qos_masters=               
qos_policy=Null
qos_priorities=1
qos_priority_escalation=false
qos_q_policy=fifo
qos_syncro_scheduler=false
qos_turnaround_policy=Null
range=0:536870911:5:19:0:0
ranks_per_channel=2
read_buffer_size=32
static_backend_latency=10000
static_frontend_latency=10000
tBURST=5000
tCCD_L=0
tCCD_L_WR=0
tCK=1250
tCL=13750
tCS=2500
tRAS=35000
tRCD=13750
tREFI=7800000
tRFC=260000
tRP=13750
tRRD=6000
tRRD_L=0
tRTP=7500
tRTW=2500
tWR=15000
tWTR=7500
tXAW=30000
tXP=6000
tXPDLL=0
tXS=270000
tXSDLL=0
write_buffer_size=64
write_high_thresh_perc=85
write_low_thresh_perc=50
port=system.ruby.dir_cntrl0.memory

[system.ruby]
type=RubySystem
children=clk_domain dir_cntrl0 dma_cntrl0 dma_cntrl1 io_controller l1_cntrl0 memctrl_clk_domain network
access_backing_store=false
all_instructions=false
block_size_bytes=64
clk_domain=system.ruby.clk_domain
default_p_state=UNDEFINED
eventq_index=0
hot_lines=false
memory_size_bits=48
num_of_sequencers=1
number_of_virtual_networks=5
p_state_clk_gate_bins=20
p_state_clk_gate_max=1000000000000
p_state_clk_gate_min=1000
phys_mem=Null
power_model=
randomization=false

[system.ruby.clk_domain]
type=SrcClockDomain
clock=500
domain_id=-1
eventq_index=0
init_perf_level=0
voltage_domain=system.voltage_domain

[system.ruby.dir_cntrl0]
type=Directory_Controller
children=directory dmaRequestToDir dmaResponseFromDir forwardFromDir requestToDir responseFromDir responseFromMemory
addr_ranges=0:536870911:5:19:0:0
buffer_size=0
clk_domain=system.ruby.clk_domain
cluster_id=0
default_p_state=UNDEFINED
directory=system.ruby.dir_cntrl0.directory
directory_latency=12
dmaRequestToDir=system.ruby.dir_cntrl0.dmaRequestToDir
dmaResponseFromDir=system.ruby.dir_cntrl0.dmaResponseFromDir
eventq_index=0
forwardFromDir=system.ruby.dir_cntrl0.forwardFromDir
number_of_TBEs=256
p_state_clk_gate_bins=20
p_state_clk_gate_max=1000000000000
p_state_clk_gate_min=1000
power_model=
recycle_latency=10
requestToDir=system.ruby.dir_cntrl0.requestToDir
responseFromDir=system.ruby.dir_cntrl0.responseFromDir
responseFromMemory=system.ruby.dir_cntrl0.responseFromMemory
ruby_system=system.ruby
system=system
to_memory_controller_latency=1
transitions_per_cycle=32
version=0
memory=system.mem_ctrls.port

[system.ruby.dir_cntrl0.directory]
type=RubyDirectoryMemory
addr_ranges=0:536870911:5:19:0:0
eventq_index=0

[system.ruby.dir_cntrl0.dmaRequestToDir]
type=MessageBuffer
buffer_size=0
eventq_index=0
ordered=true
randomization=false
slave=system.ruby.network.master[3]

[system.ruby.dir_cntrl0.dmaResponseFromDir]
type=MessageBuffer
buffer_size=0
eventq_index=0
ordered=true
randomization=false
master=system.ruby.network.slave[3]

[system.ruby.dir_cntrl0.forwardFromDir]
type=MessageBuffer
buffer_size=0
eventq_index=0
ordered=false
randomization=false
master=system.ruby.network.slave[4]

[system.ruby.dir_cntrl0.requestToDir]
type=MessageBuffer
buffer_size=0
eventq_index=0
ordered=true
randomization=false
slave=system.ruby.network.master[2]

[system.ruby.dir_cntrl0.responseFromDir]
type=MessageBuffer
buffer_size=0
eventq_index=0
ordered=false
randomization=false
master=system.ruby.network.slave[2]

[system.ruby.dir_cntrl0.responseFromMemory]
type=MessageBuffer
buffer_size=0
eventq_index=0
ordered=false
randomization=false

[system.ruby.dma_cntrl0]
type=DMA_Controller
children=dma_sequencer mandatoryQueue requestToDir responseFromDir
addr_ranges=0:18446744073709551615:0:0:0:0
buffer_size=0
clk_domain=system.ruby.clk_domain
cluster_id=0
default_p_state=UNDEFINED
dma_sequencer=system.ruby.dma_cntrl0.dma_sequencer
eventq_index=0
mandatoryQueue=system.ruby.dma_cntrl0.mandatoryQueue
number_of_TBEs=256
p_state_clk_gate_bins=20
p_state_clk_gate_max=1000000000000
p_state_clk_gate_min=1000
power_model=
recycle_latency=10
requestToDir=system.ruby.dma_cntrl0.requestToDir
request_latency=6
responseFromDir=system.ruby.dma_cntrl0.responseFromDir
ruby_system=system.ruby
system=system
transitions_per_cycle=4
version=0

[system.ruby.dma_cntrl0.dma_sequencer]
type=DMASequencer
clk_domain=system.ruby.clk_domain
default_p_state=UNDEFINED
eventq_index=0
is_cpu_sequencer=true
max_outstanding_requests=64
no_retry_on_stall=false
p_state_clk_gate_bins=20
p_state_clk_gate_max=1000000000000
p_state_clk_gate_min=1000
power_model=
ruby_system=system.ruby
support_data_reqs=true
support_inst_reqs=true
system=system
using_ruby_tester=false
version=0
slave=system.tsunami.ide.dma

[system.ruby.dma_cntrl0.mandatoryQueue]
type=MessageBuffer
buffer_size=0
eventq_index=0
ordered=false
randomization=false

[system.ruby.dma_cntrl0.requestToDir]
type=MessageBuffer
buffer_size=0
eventq_index=0
ordered=false
randomization=false
master=system.ruby.network.slave[5]

[system.ruby.dma_cntrl0.responseFromDir]
type=MessageBuffer
buffer_size=0
eventq_index=0
ordered=true
randomization=false
slave=system.ruby.network.master[4]

[system.ruby.dma_cntrl1]
type=DMA_Controller
children=dma_sequencer mandatoryQueue requestToDir responseFromDir
addr_ranges=0:18446744073709551615:0:0:0:0
buffer_size=0
clk_domain=system.ruby.clk_domain
cluster_id=0
default_p_state=UNDEFINED
dma_sequencer=system.ruby.dma_cntrl1.dma_sequencer
eventq_index=0
mandatoryQueue=system.ruby.dma_cntrl1.mandatoryQueue
number_of_TBEs=256
p_state_clk_gate_bins=20
p_state_clk_gate_max=1000000000000
p_state_clk_gate_min=1000
power_model=
recycle_latency=10
requestToDir=system.ruby.dma_cntrl1.requestToDir
request_latency=6
responseFromDir=system.ruby.dma_cntrl1.responseFromDir
ruby_system=system.ruby
system=system
transitions_per_cycle=4
version=1

[system.ruby.dma_cntrl1.dma_sequencer]
type=DMASequencer
clk_domain=system.ruby.clk_domain
default_p_state=UNDEFINED
eventq_index=0
is_cpu_sequencer=true
max_outstanding_requests=64
no_retry_on_stall=false
p_state_clk_gate_bins=20
p_state_clk_gate_max=1000000000000
p_state_clk_gate_min=1000
power_model=
ruby_system=system.ruby
support_data_reqs=true
support_inst_reqs=true
system=system
using_ruby_tester=false
version=1
slave=system.tsunami.ethernet.dma

[system.ruby.dma_cntrl1.mandatoryQueue]
type=MessageBuffer
buffer_size=0
eventq_index=0
ordered=false
randomization=false

[system.ruby.dma_cntrl1.requestToDir]
type=MessageBuffer
buffer_size=0
eventq_index=0
ordered=false
randomization=false
master=system.ruby.network.slave[6]

[system.ruby.dma_cntrl1.responseFromDir]
type=MessageBuffer
buffer_size=0
eventq_index=0
ordered=true
randomization=false
slave=system.ruby.network.master[5]

[system.ruby.io_controller]
type=DMA_Controller
children=dma_sequencer mandatoryQueue requestToDir responseFromDir
addr_ranges=0:18446744073709551615:0:0:0:0
buffer_size=0
clk_domain=system.ruby.clk_domain
cluster_id=0
default_p_state=UNDEFINED
dma_sequencer=system.ruby.io_controller.dma_sequencer
eventq_index=0
mandatoryQueue=system.ruby.io_controller.mandatoryQueue
number_of_TBEs=256
p_state_clk_gate_bins=20
p_state_clk_gate_max=1000000000000
p_state_clk_gate_min=1000
power_model=
recycle_latency=10
requestToDir=system.ruby.io_controller.requestToDir
request_latency=6
responseFromDir=system.ruby.io_controller.responseFromDir
ruby_system=system.ruby
system=system
transitions_per_cycle=32
version=2

[system.ruby.io_controller.dma_sequencer]
type=DMASequencer
clk_domain=system.ruby.clk_domain
default_p_state=UNDEFINED
eventq_index=0
is_cpu_sequencer=true
max_outstanding_requests=64
no_retry_on_stall=false
p_state_clk_gate_bins=20
p_state_clk_gate_max=1000000000000
p_state_clk_gate_min=1000
power_model=
ruby_system=system.ruby
support_data_reqs=true
support_inst_reqs=true
system=system
using_ruby_tester=false
version=2
slave=system.iobus.master[27]

[system.ruby.io_controller.mandatoryQueue]
type=MessageBuffer
buffer_size=0
eventq_index=0
ordered=false
randomization=false

[system.ruby.io_controller.requestToDir]
type=MessageBuffer
buffer_size=0
eventq_index=0
ordered=false
randomization=false
master=system.ruby.network.slave[7]

[system.ruby.io_controller.responseFromDir]
type=MessageBuffer
buffer_size=0
eventq_index=0
ordered=true
randomization=false
slave=system.ruby.network.master[6]

[system.ruby.l1_cntrl0]
type=L1Cache_Controller
children=cacheMemory forwardToCache mandatoryQueue requestFromCache responseFromCache responseToCache sequencer
addr_ranges=0:18446744073709551615:0:0:0:0
buffer_size=0
cacheMemory=system.ruby.l1_cntrl0.cacheMemory
cache_response_latency=12
clk_domain=system.cpu_clk_domain
cluster_id=0
default_p_state=UNDEFINED
eventq_index=0
forwardToCache=system.ruby.l1_cntrl0.forwardToCache
issue_latency=2
mandatoryQueue=system.ruby.l1_cntrl0.mandatoryQueue
number_of_TBEs=256
p_state_clk_gate_bins=20
p_state_clk_gate_max=1000000000000
p_state_clk_gate_min=1000
power_model=
recycle_latency=10
requestFromCache=system.ruby.l1_cntrl0.requestFromCache
responseFromCache=system.ruby.l1_cntrl0.responseFromCache
responseToCache=system.ruby.l1_cntrl0.responseToCache
ruby_system=system.ruby
send_evictions=false
sequencer=system.ruby.l1_cntrl0.sequencer
system=system
transitions_per_cycle=4
version=0

[system.ruby.l1_cntrl0.cacheMemory]
type=RubyCache
children=replacement_policy
assoc=2
block_size=0
dataAccessLatency=1
dataArrayBanks=1
eventq_index=0
is_icache=false
replacement_policy=system.ruby.l1_cntrl0.cacheMemory.replacement_policy
resourceStalls=false
ruby_system=system.ruby
size=32768
start_index_bit=6
tagAccessLatency=1
tagArrayBanks=1

[system.ruby.l1_cntrl0.cacheMemory.replacement_policy]
type=ADPGReplacementPolicy
assoc=2
block_size=64
eventq_index=0
size=32768

[system.ruby.l1_cntrl0.forwardToCache]
type=MessageBuffer
buffer_size=0
eventq_index=0
ordered=true
randomization=false
slave=system.ruby.network.master[0]

[system.ruby.l1_cntrl0.mandatoryQueue]
type=MessageBuffer
buffer_size=0
eventq_index=0
ordered=false
randomization=false

[system.ruby.l1_cntrl0.requestFromCache]
type=MessageBuffer
buffer_size=0
eventq_index=0
ordered=true
randomization=false
master=system.ruby.network.slave[0]

[system.ruby.l1_cntrl0.responseFromCache]
type=MessageBuffer
buffer_size=0
eventq_index=0
ordered=true
randomization=false
master=system.ruby.network.slave[1]

[system.ruby.l1_cntrl0.responseToCache]
type=MessageBuffer
buffer_size=0
eventq_index=0
ordered=true
randomization=false
slave=system.ruby.network.master[1]

[system.ruby.l1_cntrl0.sequencer]
type=RubySequencer
clk_domain=system.cpu_clk_domain
coreid=99
dcache=system.ruby.l1_cntrl0.cacheMemory
dcache_hit_latency=1
deadlock_threshold=500000
default_p_state=UNDEFINED
eventq_index=0
garnet_standalone=false
icache=system.ruby.l1_cntrl0.cacheMemory
icache_hit_latency=1
is_cpu_sequencer=true
max_outstanding_requests=16
no_retry_on_stall=false
p_state_clk_gate_bins=20
p_state_clk_gate_max=1000000000000
p_state_clk_gate_min=1000
power_model=
ruby_system=system.ruby
support_data_reqs=true
support_inst_reqs=true
system=system
using_ruby_tester=false
version=0
mem_master_port=system.iobus.slave[2]
pio_master_port=system.iobus.slave[1]
slave=system.cpu.icache_port system.cpu.dcache_port

[system.ruby.memctrl_clk_domain]
type=DerivedClockDomain
clk_divider=3
clk_domain=system.ruby.clk_domain
eventq_index=0

[system.ruby.network]
type=SimpleNetwork
children=ext_links0 ext_links1 ext_links2 ext_links3 ext_links4 int_link_buffers00 int_link_buffers01 int_link_buffers02 int_link_buffers03 int_link_buffers04 int_link_buffers05 int_link_buffers06 int_link_buffers07 int_link_buffers08 int_link_buffers09 int_link_buffers10 int_link_buffers11 int_link_buffers12 int_link_buffers13 int_link_buffers14 int_link_buffers15 int_link_buffers16 int_link_buffers17 int_link_buffers18 int_link_buffers19 int_link_buffers20 int_link_buffers21 int_link_buffers22 int_link_buffers23 int_link_buffers24 int_link_buffers25 int_link_buffers26 int_link_buffers27 int_link_buffers28 int_link_buffers29 int_link_buffers30 int_link_buffers31 int_link_buffers32 int_link_buffers33 int_link_buffers34 int_link_buffers35 int_link_buffers36 int_link_buffers37 int_link_buffers38 int_link_buffers39 int_link_buffers40 int_link_buffers41 int_link_buffers42 int_link_buffers43 int_link_buffers44 int_link_buffers45 int_link_buffers46 int_link_buffers47 int_link_buffers48 int_link_buffers49 int_link_buffers50 int_link_buffers51 int_link_buffers52 int_link_buffers53 int_link_buffers54 int_link_buffers55 int_link_buffers56 int_link_buffers57 int_link_buffers58 int_link_buffers59 int_link_buffers60 int_link_buffers61 int_link_buffers62 int_link_buffers63 int_link_buffers64 int_link_buffers65 int_link_buffers66 int_link_buffers67 int_link_buffers68 int_link_buffers69 int_link_buffers70 int_link_buffers71 int_link_buffers72 int_link_buffers73 int_link_buffers74 int_link_buffers75 int_link_buffers76 int_link_buffers77 int_link_buffers78 int_link_buffers79 int_link_buffers80 int_link_buffers81 int_link_buffers82 int_link_buffers83 int_link_buffers84 int_link_buffers85 int_link_buffers86 int_link_buffers87 int_link_buffers88 int_link_buffers89 int_link_buffers90 int_link_buffers91 int_link_buffers92 int_link_buffers93 int_link_buffers94 int_link_buffers95 int_link_buffers96 int_link_buffers97 int_link_buffers98 int_link_buffers99 int_links0 int_links1 int_links2 int_links3 int_links4 int_links5 int_links6 int_links7 int_links8 int_links9 routers0 routers1 routers2 routers3 routers4 routers5
adaptive_routing=false
buffer_size=0
clk_domain=system.ruby.clk_domain
control_msg_size=8
default_p_state=UNDEFINED
endpoint_bandwidth=1000
eventq_index=0
ext_links=system.ruby.network.ext_links0 system.ruby.network.ext_links1 system.ruby.network.ext_links2 system.ruby.network.ext_links3 system.ruby.network.ext_links4
int_link_buffers=system.ruby.network.int_link_buffers00 system.ruby.network.int_link_buffers01 system.ruby.network.int_link_buffers02 system.ruby.network.int_link_buffers03 system.ruby.network.int_link_buffers04 system.ruby.network.int_link_buffers05 system.ruby.network.int_link_buffers06 system.ruby.network.int_link_buffers07 system.ruby.network.int_link_buffers08 system.ruby.network.int_link_buffers09 system.ruby.network.int_link_buffers10 system.ruby.network.int_link_buffers11 system.ruby.network.int_link_buffers12 system.ruby.network.int_link_buffers13 system.ruby.network.int_link_buffers14 system.ruby.network.int_link_buffers15 system.ruby.network.int_link_buffers16 system.ruby.network.int_link_buffers17 system.ruby.network.int_link_buffers18 system.ruby.network.int_link_buffers19 system.ruby.network.int_link_buffers20 system.ruby.network.int_link_buffers21 system.ruby.network.int_link_buffers22 system.ruby.network.int_link_buffers23 system.ruby.network.int_link_buffers24 system.ruby.network.int_link_buffers25 system.ruby.network.int_link_buffers26 system.ruby.network.int_link_buffers27 system.ruby.network.int_link_buffers28 system.ruby.network.int_link_buffers29 system.ruby.network.int_link_buffers30 system.ruby.network.int_link_buffers31 system.ruby.network.int_link_buffers32 system.ruby.network.int_link_buffers33 system.ruby.network.int_link_buffers34 system.ruby.network.int_link_buffers35 system.ruby.network.int_link_buffers36 system.ruby.network.int_link_buffers37 system.ruby.network.int_link_buffers38 system.ruby.network.int_link_buffers39 system.ruby.network.int_link_buffers40 system.ruby.network.int_link_buffers41 system.ruby.network.int_link_buffers42 system.ruby.network.int_link_buffers43 system.ruby.network.int_link_buffers44 system.ruby.network.int_link_buffers45 system.ruby.network.int_link_buffers46 system.ruby.network.int_link_buffers47 system.ruby.network.int_link_buffers48 system.ruby.network.int_link_buffers49 system.ruby.network.int_link_buffers50 system.ruby.network.int_link_buffers51 system.ruby.network.int_link_buffers52 system.ruby.network.int_link_buffers53 system.ruby.network.int_link_buffers54 system.ruby.network.int_link_buffers55 system.ruby.network.int_link_buffers56 system.ruby.network.int_link_buffers57 system.ruby.network.int_link_buffers58 system.ruby.network.int_link_buffers59 system.ruby.network.int_link_buffers60 system.ruby.network.int_link_buffers61 system.ruby.network.int_link_buffers62 system.ruby.network.int_link_buffers63 system.ruby.network.int_link_buffers64 system.ruby.network.int_link_buffers65 system.ruby.network.int_link_buffers66 system.ruby.network.int_link_buffers67 system.ruby.network.int_link_buffers68 system.ruby.network.int_link_buffers69 system.ruby.network.int_link_buffers70 system.ruby.network.int_link_buffers71 system.ruby.network.int_link_buffers72 system.ruby.network.int_link_buffers73 system.ruby.network.int_link_buffers74 system.ruby.network.int_link_buffers75 system.ruby.network.int_link_buffers76 system.ruby.network.int_link_buffers77 system.ruby.network.int_link_buffers78 system.ruby.network.int_link_buffers79 system.ruby.network.int_link_buffers80 system.ruby.network.int_link_buffers81 system.ruby.network.int_link_buffers82 system.ruby.network.int_link_buffers83 system.ruby.network.int_link_buffers84 system.ruby.network.int_link_buffers85 system.ruby.network.int_link_buffers86 system.ruby.network.int_link_buffers87 system.ruby.network.int_link_buffers88 system.ruby.network.int_link_buffers89 system.ruby.network.int_link_buffers90 system.ruby.network.int_link_buffers91 system.ruby.network.int_link_buffers92 system.ruby.network.int_link_buffers93 system.ruby.network.int_link_buffers94 system.ruby.network.int_link_buffers95 system.ruby.network.int_link_buffers96 system.ruby.network.int_link_buffers97 system.ruby.network.int_link_buffers98 system.ruby.network.int_link_buffers99
int_links=system.ruby.network.int_links0 system.ruby.network.int_links1 system.ruby.network.int_links2 system.ruby.network.int_links3 system.ruby.network.int_links4 system.ruby.network.int_links5 system.ruby.network.int_links6 system.ruby.network.int_links7 system.ruby.network.int_links8 system.ruby.network.int_links9
netifs=
number_of_virtual_networks=5
p_state_clk_gate_bins=20
p_state_clk_gate_max=1000000000000
p_state_clk_gate_min=1000
power_model=
routers=system.ruby.network.routers0 system.ruby.network.routers1 system.ruby.network.routers2 system.ruby.network.routers3 system.ruby.network.routers4 system.ruby.network.routers5
ruby_system=system.ruby
topology=Crossbar
master=system.ruby.l1_cntrl0.forwardToCache.slave system.ruby.l1_cntrl0.responseToCache.slave system.ruby.dir_cntrl0.requestToDir.slave system.ruby.dir_cntrl0.dmaRequestToDir.slave system.ruby.dma_cntrl0.responseFromDir.slave system.ruby.dma_cntrl1.responseFromDir.slave system.ruby.io_controller.responseFromDir.slave
slave=system.ruby.l1_cntrl0.requestFromCache.master system.ruby.l1_cntrl0.responseFromCache.master system.ruby.dir_cntrl0.responseFromDir.master system.ruby.dir_cntrl0.dmaResponseFromDir.master system.ruby.dir_cntrl0.forwardFromDir.master system.ruby.dma_cntrl0.requestToDir.master system.ruby.dma_cntrl1.requestToDir.master system.ruby.io_controller.requestToDir.master

[system.ruby.network.ext_links0]
type=SimpleExtLink
bandwidth_factor=16
eventq_index=0
ext_node=system.ruby.l1_cntrl0
int_node=system.ruby.network.routers0
latency=1
link_id=0
weight=1

[system.ruby.network.ext_links1]
type=SimpleExtLink
bandwidth_factor=16
eventq_index=0
ext_node=system.ruby.dir_cntrl0
int_node=system.ruby.network.routers1
latency=1
link_id=1
weight=1

[system.ruby.network.ext_links2]
type=SimpleExtLink
bandwidth_factor=16
eventq_index=0
ext_node=system.ruby.dma_cntrl0
int_node=system.ruby.network.routers2
latency=1
link_id=2
weight=1

[system.ruby.network.ext_links3]
type=SimpleExtLink
bandwidth_factor=16
eventq_index=0
ext_node=system.ruby.dma_cntrl1
int_node=system.ruby.network.routers3
latency=1
link_id=3
weight=1

[system.ruby.network.ext_links4]
type=SimpleExtLink
bandwidth_factor=16
eventq_index=0
ext_node=system.ruby.io_controller
int_node=system.ruby.network.routers4
latency=1
link_id=4
weight=1

[system.ruby.network.int_link_buffers00]
type=MessageBuffer
buffer_size=0
eventq_index=0
ordered=true
randomization=false

[system.ruby.network.int_link_buffers01]
type=MessageBuffer
buffer_size=0
eventq_index=0
ordered=true
randomization=false

[system.ruby.network.int_link_buffers02]
type=MessageBuffer
buffer_size=0
eventq_index=0
ordered=true
randomization=false

[system.ruby.network.int_link_buffers03]
type=MessageBuffer
buffer_size=0
eventq_index=0
ordered=true
randomization=false

[system.ruby.network.int_link_buffers04]
type=MessageBuffer
buffer_size=0
eventq_index=0
ordered=true
randomization=false

[system.ruby.network.int_link_buffers05]
type=MessageBuffer
buffer_size=0
eventq_index=0
ordered=true
randomization=false

[system.ruby.network.int_link_buffers06]
type=MessageBuffer
buffer_size=0
eventq_index=0
ordered=true
randomization=false

[system.ruby.network.int_link_buffers07]
type=MessageBuffer
buffer_size=0
eventq_index=0
ordered=true
randomization=false

[system.ruby.network.int_link_buffers08]
type=MessageBuffer
buffer_size=0
eventq_index=0
ordered=true
randomization=false

[system.ruby.network.int_link_buffers09]
type=MessageBuffer
buffer_size=0
eventq_index=0
ordered=true
randomization=false

[system.ruby.network.int_link_buffers10]
type=MessageBuffer
buffer_size=0
eventq_index=0
ordered=true
randomization=false

[system.ruby.network.int_link_buffers11]
type=MessageBuffer
buffer_size=0
eventq_index=0
ordered=true
randomization=false

[system.ruby.network.int_link_buffers12]
type=MessageBuffer
buffer_size=0
eventq_index=0
ordered=true
randomization=false

[system.ruby.network.int_link_buffers13]
type=MessageBuffer
buffer_size=0
eventq_index=0
ordered=true
randomization=false

[system.ruby.network.int_link_buffers14]
type=MessageBuffer
buffer_size=0
eventq_index=0
ordered=true
randomization=false

[system.ruby.network.int_link_buffers15]
type=MessageBuffer
buffer_size=0
eventq_index=0
ordered=true
randomization=false

[system.ruby.network.int_link_buffers16]
type=MessageBuffer
buffer_size=0
eventq_index=0
ordered=true
randomization=false

[system.ruby.network.int_link_buffers17]
type=MessageBuffer
buffer_size=0
eventq_index=0
ordered=true
randomization=false

[system.ruby.network.int_link_buffers18]
type=MessageBuffer
buffer_size=0
eventq_index=0
ordered=true
randomization=false

[system.ruby.network.int_link_buffers19]
type=MessageBuffer
buffer_size=0
eventq_index=0
ordered=true
randomization=false

[system.ruby.network.int_link_buffers20]
type=MessageBuffer
buffer_size=0
eventq_index=0
ordered=true
randomization=false

[system.ruby.network.int_link_buffers21]
type=MessageBuffer
buffer_size=0
eventq_index=0
ordered=true
randomization=false

[system.ruby.network.int_link_buffers22]
type=MessageBuffer
buffer_size=0
eventq_index=0
ordered=true
randomization=false

[system.ruby.network.int_link_buffers23]
type=MessageBuffer
buffer_size=0
eventq_index=0
ordered=true
randomization=false

[system.ruby.network.int_link_buffers24]
type=MessageBuffer
buffer_size=0
eventq_index=0
ordered=true
randomization=false

[system.ruby.network.int_link_buffers25]
type=MessageBuffer
buffer_size=0
eventq_index=0
ordered=true
randomization=false

[system.ruby.network.int_link_buffers26]
type=MessageBuffer
buffer_size=0
eventq_index=0
ordered=true
randomization=false

[system.ruby.network.int_link_buffers27]
type=MessageBuffer
buffer_size=0
eventq_index=0
ordered=true
randomization=false

[system.ruby.network.int_link_buffers28]
type=MessageBuffer
buffer_size=0
eventq_index=0
ordered=true
randomization=false

[system.ruby.network.int_link_buffers29]
type=MessageBuffer
buffer_size=0
eventq_index=0
ordered=true
randomization=false

[system.ruby.network.int_link_buffers30]
type=MessageBuffer
buffer_size=0
eventq_index=0
ordered=true
randomization=false

[system.ruby.network.int_link_buffers31]
type=MessageBuffer
buffer_size=0
eventq_index=0
ordered=true